LTspice 24.0.9 for Windows
Circuit: * Z:\home\jkmunson\workspace\sp24\EENG_331_LAB2\part2_a_1.asc
Start Time: Tue Apr 16 13:50:28 2024
solver = Normal
Maximum thread count: 16



Instance "m1": Width narrower than recommended for a level 1 MOSFET.
.step x=2



.step x=5



.step x=7



.step x=9
tnom = 27
temp = 27
method = modified trap
.step x=10
Total elapsed time: 0.150 seconds.

