LTspice 24.0.9 for Windows
Circuit: * Z:\home\jkmunson\workspace\sp24\EENG_331_LAB2\part2_a_2.asc
Start Time: Tue Apr 16 14:02:52 2024
solver = Normal
Maximum thread count: 16



Instance "m1": Width narrower than recommended for a level 1 MOSFET.
.step x=1



.step x=2



.step x=3



.step x=5
tnom = 27
temp = 27
method = modified trap
.step x=10
Total elapsed time: 0.150 seconds.

