LTspice 24.0.9 for Windows
Circuit: * Z:\home\jkmunson\workspace\sp24\EENG_331_LAB2\part1_b.asc
Start Time: Tue Apr 16 14:29:42 2024
solver = Normal
Maximum thread count: 16
tnom = 27
temp = 27
method = modified trap
Instance "m1": Length shorter than recommended for a level 1 MOSFET.
Instance "m1": Width narrower than recommended for a level 1 MOSFET.
Total elapsed time: 0.063 seconds.

