LTspice 24.0.9 for Windows
Circuit: * Z:\home\jkmunson\workspace\sp24\EENG_331_LAB2\part3_b_vds_sweep.asc
Start Time: Tue Apr 16 15:22:58 2024
solver = Normal
Maximum thread count: 16



Instance "m1": Length shorter than recommended for a level 1 MOSFET.
Instance "m1": Width narrower than recommended for a level 1 MOSFET.
.step x=3.6e-07



.step x=8e-07



.step x=1.4e-06



.step x=1.9e-06
tnom = 27
temp = 27
method = modified trap
.step x=2.4e-06
Total elapsed time: 0.162 seconds.

