LTspice 24.0.9 for Windows
Circuit: * Z:\home\jkmunson\workspace\sp24\EENG_331_LAB2\part3_a_vgs_sweep.asc
Start Time: Tue Apr 16 15:36:11 2024
solver = Normal
Maximum thread count: 16



Instance "m1": Length shorter than recommended for a level 1 MOSFET.
Instance "m1": Width narrower than recommended for a level 1 MOSFET.
.step x=9e-08



.step x=1.3e-07



.step x=2e-07



.step x=3e-07
tnom = 27
temp = 27
method = modified trap
.step x=6e-07
Total elapsed time: 0.167 seconds.

